
Actelion Java MolfileCreator 2.0

  0  0  0  0  0  0              0 V3000
M  V30 BEGIN CTAB
M  V30 COUNTS 13 13 0 0 0
M  V30 BEGIN ATOM
M  V30 1 C 15.9199 -10.6347 0 0
M  V30 2 C 15.9199 -12.1816 0 0
M  V30 3 C 17.2595 -12.955 0 0
M  V30 4 C 18.5991 -12.1816 0 0
M  V30 5 C 18.5991 -10.6347 0 0
M  V30 6 C 17.2595 -9.8613 0 0
M  V30 7 C 19.9388 -12.955 0 0
M  V30 8 C 21.2784 -12.1816 0 0
M  V30 9 O 22.618 -12.955 0 0
M  V30 10 O 21.2784 -10.6347 0 0
M  V30 11 N 14.6208 -9.8847 0 0
M  V30 12 C 13.3218 -10.6347 0 0
M  V30 13 C 14.6208 -8.3847 0 0
M  V30 END ATOM
M  V30 BEGIN BOND
M  V30 1 2 1 2
M  V30 2 1 2 3
M  V30 3 2 3 4
M  V30 4 1 4 5
M  V30 5 2 5 6
M  V30 6 1 6 1
M  V30 7 1 4 7
M  V30 8 1 7 8
M  V30 9 1 8 9
M  V30 10 2 8 10
M  V30 11 1 1 11
M  V30 12 1 11 12
M  V30 13 1 11 13
M  V30 END BOND
M  V30 END CTAB
M  END

